= General =
== SWAN ==
	* [[SWAN]]

== Delft3d ==
	* [[Delft3D]]
		* [[klie_delft3d_gustav_model|Ke's Gustav model files]]
		* [[ke_liu_test|Testing to get Ke Liu's model running]]
		* [[gustav_xbch_BC_d3d|The modified Ke Liu Gustav D3D model]]
	* See Hopkins et. al (2017) for example model setup parameters.
		- No validation section

=== Modules ===
* [[RGFGRID]]
	- [[file:~/Documents/20_manuals/RGFGRID_User_Manual.pdf|manual]]
* [[QUICKIN]]
	- [[file:~/Documents/20_manuals/QUICKIN_User_Manual.pdf|manual]]
* [[QUICKPLOT]]
	- [[file:~/Documents/20_manuals/Delft3D-QUICKPLOT_User_Manual.pdf|manual]]

== XBeach ==
	* [[XBeach|XBeach description]]
	* [[file:~/Documents/20_manuals/XBeach_manual_kingsday.pdf|kingsday manual]]
	* [[Tutorial notes]]
	* [[file:~/Phd/20_literature_review/XBeach_review_synopses.ods|application synopses]]

=== Models ===
==== My models ====
	* [[Tests]]
	* [[Production]]

==== Other models ====
	* [[Large scale]]
